ASSIGN dbc='mesh.xdb',
unit=40 unformated delete
SOL 101
TIME 10000
CEND
  TITLE = C:\Users\y.wang\Documents\Projects\20230424_CheckMshCnnt\mesh.bdf
  ECHO = NONE
  DISPLACEMENT(PLOT) = ALL
  STRESS(PLOT) = ALL
  SPC = 1
BEGIN BULK
PARAM, WTMASS,1.000000
PARAM, POST, 0
$ CORD SYS ------------------------------
$ Materials ------------------------------
MAT1    1       2.000+11        0.3000007850.0001.200-0522.00000                
                                        
$ Properties ------------------------------
PSOLID  1       1               TWO             FULL                            
$ RBE2s from CPs ------------------------------
$ RBE2s (Rigid)  ------------------------------
$ RBE3s (Force distributed) ------------------------------
$ NODES ------------------------------
GRID    1       0       0.0500000.0500000.0500000       
GRID    2       0       0.0500000.0500000.0000000       
GRID    3       0       0.0500000.0500000.1000000       
GRID    4       0       0.0500000.1000000.1000000       
GRID    5       0       0.1000000.1000000.1000000       
GRID    6       0       0.1000000.0500000.1000000       
GRID    7       0       0.1000000.0000000.1000000       
GRID    8       0       0.0500000.0000000.1000000       
GRID    9       0       0.0000000.0000000.1000000       
GRID    10      0       1.388-170.0500000.1000000       
GRID    11      0       0.0000000.1000000.1000000       
GRID    12      0       1.162-170.0500000.0500000       
GRID    13      0       1.388-170.0500000.0000000       
GRID    14      0       0.0000000.1000000.0000000       
GRID    15      0       2.776-170.1000000.0500000       
GRID    16      0       0.0000000.0000000.0000000       
GRID    17      0       0.0000000.0000000.0500000       
GRID    18      0       0.0500000.0000000.0500000       
GRID    19      0       0.0500000.0000000.0000000       
GRID    20      0       0.1000000.0000000.0000000       
$ ... 7 like lines cut
$ ELEMENTS ------------------------------
$ ANSYS: Combin14 (longitudinal)
$ ANSYS: Combin14 (coincident)
$ ANSYS: Combin250
$ ANSYS: Link180
$ ANSYS: Beam188
$ ANSYS: Shell 181
$ ANSYS: Shell 281
$ ANSYS: Solid 185
CHEXA   1       1       1       22      21      18      2       23              
        20      19                                                              
CHEXA   2       1       1       18      21      22      3       8               
        7       6                                                               
CHEXA   3       1       1       26      25      22      2       27              
        24      23                                                              
CHEXA   4       1       1       22      25      26      3       6               
        5       4                                                               
CHEXA   5       1       1       18      17      12      2       19              
        16      13                                                              
CHEXA   6       1       1       12      17      18      3       10              
        9       8                                                               
CHEXA   7       1       1       12      15      26      2       13              
        14      27                                                              
CHEXA   8       1       1       26      15      12      3       4               
        11      10                                                              
$ ANSYS: Solid 186
$ ANSYS: Solid 187
$ ANSYS: Mass 21 
ENDDATA
